Program Version,EnergyPlus, Version 9.1.0-08d2e308bb, YMD=2021.03.27 03:27,
   ************* Beginning Zone Sizing Calculations
   ** Warning ** Weather file location will be used rather than entered (IDF) Location object.
   **   ~~~   ** ..Location object=USA IL-CHICAGO-OHARE
   **   ~~~   ** ..Weather File Location=PHILADELPHIA - USA Custom-720304 WMO#=720304
   **   ~~~   ** ..due to location differences, Latitude difference=[1.63] degrees, Longitude difference=[12.49] degrees.
   **   ~~~   ** ..Time Zone difference=[1.0] hour(s), Elevation difference=[51.58] percent, [98.00] meters.
   ************* Beginning System Sizing Calculations
   ************* Beginning Plant Sizing Calculations
   ************* Testing Individual Branch Integrity
   ************* All Branches passed integrity testing
   ************* Testing Individual Supply Air Path Integrity
   ************* All Supply Air Paths passed integrity testing
   ************* Testing Individual Return Air Path Integrity
   ************* All Return Air Paths passed integrity testing
   ************* No node connection errors were found.
   ************* Beginning Simulation
   ************* Simulation Error Summary *************
   ************* EnergyPlus Warmup Error Summary. During Warmup: 0 Warning; 0 Severe Errors.
   ************* EnergyPlus Sizing Error Summary. During Sizing: 1 Warning; 0 Severe Errors.
   ************* EnergyPlus Completed Successfully-- 1 Warning; 0 Severe Errors; Elapsed Time=00hr 00min 36.34sec
