Program Version,EnergyPlus, Version 9.1.0-08d2e308bb, YMD=2021.07.16 12:27,
   ************* Beginning Zone Sizing Calculations
   ** Warning ** Weather file location will be used rather than entered (IDF) Location object.
   **   ~~~   ** ..Location object=USA IL-CHICAGO-OHARE
   **   ~~~   ** ..Weather File Location=PHILADELPHIA - USA Custom-720304 WMO#=720304
   **   ~~~   ** ..due to location differences, Latitude difference=[1.63] degrees, Longitude difference=[12.49] degrees.
   **   ~~~   ** ..Time Zone difference=[1.0] hour(s), Elevation difference=[51.58] percent, [98.00] meters.
   ** Warning ** Calculated design heating load for zone=CORE_BOTTOM is zero.
   **   ~~~   ** Check Sizing:Zone and ZoneControl:Thermostat inputs.
   ************* Beginning System Sizing Calculations
   ************* Beginning Plant Sizing Calculations
   ************* Testing Individual Branch Integrity
   ************* All Branches passed integrity testing
   ************* Testing Individual Supply Air Path Integrity
   ************* All Supply Air Paths passed integrity testing
   ************* Testing Individual Return Air Path Integrity
   ************* All Return Air Paths passed integrity testing
   ************* No node connection errors were found.
   ************* Beginning Simulation
   ** Warning ** SimHVAC: Maximum iterations (25) exceeded for all HVAC loops, at PHILADELPHIA 2014, 03/18 15:30 - 15:40
   **   ~~~   ** The solution for one or more of the Air Loop HVAC systems did not appear to converge
   **   ~~~   ** ...use Output:Diagnostics,DisplayExtraWarnings; to show more details on each max iteration exceeded.
   ** Warning ** SimHVAC: Maximum iterations (25) exceeded for all HVAC loops, at PHILADELPHIA 2014, 03/18 15:40 - 15:50
   **   ~~~   ** The solution for one or more of the Air Loop HVAC systems did not appear to converge
   ** Warning ** SimHVAC: Maximum iterations (25) exceeded for all HVAC loops, at PHILADELPHIA 2014, 03/20 11:00 - 11:10
   **   ~~~   ** The solution for one or more of the Air Loop HVAC systems did not appear to converge
   ** Warning ** SimHVAC: Maximum iterations (25) exceeded for all HVAC loops, at PHILADELPHIA 2014, 04/24 10:20 - 10:30
   **   ~~~   ** The solution for one or more of the Air Loop HVAC systems did not appear to converge
   ** Warning ** SimHVAC: Maximum iterations (25) exceeded for all HVAC loops, at PHILADELPHIA 2014, 10/25 09:30 - 09:40
   **   ~~~   ** The solution for one or more of the Air Loop HVAC systems did not appear to converge
   ** Warning ** SimHVAC: Maximum iterations (25) exceeded for all HVAC loops, at PHILADELPHIA 2014, 12/19 13:30 - 13:40
   **   ~~~   ** The solution for one or more of the Air Loop HVAC systems did not appear to converge
   ************* Simulation Error Summary *************
   ************* EnergyPlus Warmup Error Summary. During Warmup: 0 Warning; 0 Severe Errors.
   ************* EnergyPlus Sizing Error Summary. During Sizing: 2 Warning; 0 Severe Errors.
   ************* EnergyPlus Completed Successfully-- 8 Warning; 0 Severe Errors; Elapsed Time=00hr 00min 38.68sec
